# CIF file
# This file was generated by FINDSYM
# Harold T. Stokes, Branton J. Campbell, Dorian M. Hatch
# Brigham Young University, Provo, Utah, USA
 
data_findsym-output
 
_symmetry_space_group_name_H-M 'P 1'
_symmetry_Int_Tables_number 1
 
_cell_length_a       4.938495
_cell_length_b       4.771699
_cell_length_c       4.840735
_cell_angle_alpha   90.12700
_cell_angle_beta    90.00000
_cell_angle_gamma   89.98800
 
loop_
_space_group_symop_operation_xyz
x,y,z
 
loop_
_atom_site_label
_atom_site_type_symbol
_atom_site_fract_x
_atom_site_fract_y
_atom_site_fract_z
_atom_site_occupancy
La1 La   0.50000   0.00000   0.00000   1.00000
La2 La   0.00000   0.00000  -0.49000   1.00000
La3 La   0.00000   0.00000   0.00000   1.00000
La4 La   0.50000   0.00000   0.49000   1.00000
La5 La   0.00000   0.50000   0.00000   1.00000
La6 La   0.50000  -0.49000   0.00000   1.00000
La7 La   0.00000   0.50000   0.50000   1.00000
La8 La   0.49000   0.50000   0.50000   1.00000
H1  H   -0.12063   0.12063  -0.12063   1.00000
H2  H    0.25000   0.25000  -0.25000   1.00000
H3  H    0.12063  -0.12063   0.12063   1.00000
H4  H   -0.12063   0.12063   0.12063   1.00000
H5  H    0.12063  -0.12063  -0.12063   1.00000
H6  H    0.12063   0.12063   0.12063   1.00000
H7  H   -0.12063  -0.12063  -0.12063   1.00000
H8  H    0.12063   0.12063  -0.12063   1.00000
H9  H   -0.12063  -0.12063   0.12063   1.00000
H10 H   0.12063  -0.12063   0.00000   1.00000
H11 H  -0.12063   0.00000   0.12063   1.00000
H12 H   0.00000   0.12063   0.12063   1.00000
H13 H  -0.12063  -0.12063   0.00000   1.00000
H14 H   0.12063   0.00000   0.12063   1.00000
H15 H   0.00000   0.12063  -0.12063   1.00000
H16 H  -0.12063   0.00000  -0.12063   1.00000
H17 H   0.00000  -0.12063   0.12063   1.00000
H18 H   0.12063   0.00000  -0.12063   1.00000
H19 H   0.00000  -0.12063  -0.12063   1.00000
H20 H  -0.12063   0.12063   0.00000   1.00000
H21 H   0.12063   0.12063   0.00000   1.00000
H22 H  -0.37937  -0.37937   0.00000   1.00000
H23 H   0.37937   0.00000   0.12063   1.00000
H24 H   0.00000   0.12063  -0.37937   1.00000
H25 H  -0.12063  -0.37937  -0.37937   1.00000
H26 H   0.37937  -0.37937   0.00000   1.00000
H27 H   0.37937   0.00000  -0.12063   1.00000
H28 H   0.00000   0.12063   0.37937   1.00000
H29 H  -0.12063   0.37937   0.37937   1.00000
H30 H   0.00000  -0.12063  -0.37937   1.00000
H31 H   0.12063   0.37937   0.37937   1.00000
H32 H  -0.37937   0.37937   0.00000   1.00000
H33 H  -0.12063  -0.37937   0.37937   1.00000
H34 H   0.37937   0.37937   0.00000   1.00000
H35 H  -0.37937   0.00000   0.12063   1.00000
H36 H   0.12063  -0.37937   0.37937   1.00000
H37 H  -0.37937   0.00000  -0.12063   1.00000
H38 H   0.00000  -0.12063   0.37937   1.00000
H39 H   0.12063  -0.37937  -0.37937   1.00000
H40 H  -0.12063   0.37937  -0.37937   1.00000
H41 H   0.12063   0.37937  -0.37937   1.00000
H42 H   0.12063  -0.37937   0.00000   1.00000
H43 H   0.37937   0.00000  -0.37937   1.00000
H44 H   0.00000  -0.37937   0.12063   1.00000
H45 H   0.37937   0.12063  -0.37937   1.00000
H46 H  -0.12063  -0.37937   0.00000   1.00000
H47 H   0.37937   0.00000   0.37937   1.00000
H48 H   0.00000  -0.37937  -0.12063   1.00000
H49 H   0.37937  -0.12063   0.37937   1.00000
H50 H   0.00000   0.37937   0.12063   1.00000
H51 H  -0.37937  -0.12063   0.37937   1.00000
H52 H   0.12063   0.37937   0.00000   1.00000
H53 H   0.37937   0.12063   0.37937   1.00000
H54 H  -0.12063   0.37937   0.00000   1.00000
H55 H  -0.37937   0.00000  -0.37937   1.00000
H56 H  -0.37937   0.12063   0.37937   1.00000
H57 H  -0.37937   0.00000   0.37937   1.00000
H58 H   0.00000   0.37937  -0.12063   1.00000
H59 H  -0.37937   0.12063  -0.37937   1.00000
H60 H   0.37937  -0.12063  -0.37937   1.00000
H61 H  -0.37937  -0.12063  -0.37937   1.00000
H62 H  -0.37937   0.12063   0.00000   1.00000
H63 H  -0.12063   0.00000  -0.37937   1.00000
H64 H   0.00000  -0.37937  -0.37937   1.00000
H65 H   0.37937  -0.37937   0.12063   1.00000
H66 H   0.37937   0.12063   0.00000   1.00000
H67 H  -0.12063   0.00000   0.37937   1.00000
H68 H   0.00000  -0.37937   0.37937   1.00000
H69 H   0.37937   0.37937  -0.12063   1.00000
H70 H   0.00000   0.37937  -0.37937   1.00000
H71 H  -0.37937   0.37937  -0.12063   1.00000
H72 H  -0.37937  -0.12063   0.00000   1.00000
H73 H   0.37937  -0.37937  -0.12063   1.00000
H74 H   0.37937  -0.12063   0.00000   1.00000
H75 H   0.12063   0.00000  -0.37937   1.00000
H76 H  -0.37937  -0.37937  -0.12063   1.00000
H77 H   0.12063   0.00000   0.37937   1.00000
H78 H   0.00000   0.37937   0.37937   1.00000
H79 H  -0.37937  -0.37937   0.12063   1.00000
H80 H   0.37937   0.37937   0.12063   1.00000
H81 H  -0.37937   0.37937   0.12063   1.00000
H82 H  -0.25000  -0.25000   0.25000   1.00000
H83 H  -0.25000   0.25000  -0.25000   1.00000
H84 H   0.25000  -0.25000   0.25000   1.00000
H85 H  -0.25000   0.25000   0.25000   1.00000
H86 H   0.25000  -0.25000  -0.25000   1.00000
H87 H   0.25000   0.25000   0.25000   1.00000
H88 H  -0.25000  -0.25000  -0.25000   1.00000
H89 H   0.25000  -0.25000   0.00000   1.00000
H90 H   0.25000   0.00000  -0.25000   1.00000
H91 H   0.00000   0.25000   0.25000   1.00000
H92 H  -0.25000  -0.25000   0.00000   1.00000
H93 H   0.00000  -0.25000  -0.25000   1.00000
H94 H   0.25000   0.25000   0.00000   1.00000
H95 H  -0.25000   0.00000  -0.25000   1.00000
H96 H   0.25000   0.00000   0.25000   1.00000
H97 H   0.00000   0.25000  -0.25000   1.00000
H98 H  -0.25000   0.00000   0.25000   1.00000
H99 H  -0.25000   0.25000   0.00000   1.00000
H100 H   0.00000  -0.25000   0.25000   1.00000
 
# end_of_file
# CIF file
# This file was generated by FINDSYM
# Harold T. Stokes, Branton J. Campbell, Dorian M. Hatch
# Brigham Young University, Provo, Utah, USA
 
data_findsym-output
 
_symmetry_space_group_name_H-M 'P 1'
_symmetry_Int_Tables_number 1
 
_cell_length_a       4.93600
_cell_length_b       4.95800
_cell_length_c       4.94600
_cell_angle_alpha   90.12700
_cell_angle_beta    90.00000
_cell_angle_gamma   89.98800
 
loop_
_space_group_symop_operation_xyz
x,y,z
 
loop_
_atom_site_label
_atom_site_type_symbol
_atom_site_fract_x
_atom_site_fract_y
_atom_site_fract_z
_atom_site_occupancy
La1 La   0.50000   0.00000   0.00000   1.00000
La2 La   0.00000   0.00000  -0.49000   1.00000
La3 La   0.00000   0.00000   0.00000   1.00000
La4 La   0.50000   0.00000   0.49000   1.00000
La5 La   0.00000   0.50000   0.00000   1.00000
La6 La   0.50000  -0.49000   0.00000   1.00000
La7 La   0.00000   0.50000   0.50000   1.00000
La8 La   0.49000   0.50000   0.50000   1.00000
H1  H   -0.12063   0.12063  -0.12063   1.00000
H2  H    0.25000   0.25000  -0.25000   1.00000
H3  H    0.12063  -0.12063   0.12063   1.00000
H4  H   -0.12063   0.12063